@<TRIPOS>MOLECULE
default_name
   36    37     1     0     1 
SMALL
USER_CHARGES
@<TRIPOS>ATOM
  1 C      -1.217000   -1.937000    0.103000 c3    1 MON    -0.2033 ****
  2 C1     -0.352000   -1.076000   -0.817000 c3    1 MON     0.1489 ****
  3 O       0.234000   -0.030000   -0.127000 os    1 MON    -0.4424 ****
  4 C2      1.189000   -0.145000    0.828000 c     1 MON     0.8715 ****
  5 O1      1.653000   -1.253000    1.063000 o     1 MON    -0.6563 ****
  6 C3      1.702000    1.041000    1.615000 ce    1 MON    -0.5597 ****
  7 C4      1.359000    2.356000    1.383000 c2    1 MON     0.5131 ****
  8 C5      0.420000    2.858000    0.303000 c3    1 MON    -0.5246 ****
  9 N       1.913000    3.396000    2.185000 n     1 MON    -0.5171 ****
 10 C6      2.849000    3.134000    3.210000 c     1 MON     0.6479 ****
 11 S       3.407000    4.216000    3.979000 s     1 MON    -0.6723 ****
 12 N1      3.234000    1.801000    3.474000 n     1 MON    -0.6814 ****
 13 C7      2.681000    0.673000    2.751000 c3    1 MON     0.4920 ****
 14 C8      1.995000   -0.230000    3.758000 ca    1 MON     0.0126 ****
 15 C9      2.471000   -1.532000    3.991000 ca    1 MON    -0.2797 ****
 16 C10     1.834000   -2.361000    4.918000 ca    1 MON    -0.0789 ****
 17 C11     0.718000   -1.900000    5.622000 ca    1 MON    -0.3533 ****
 18 C12     0.235000   -0.602000    5.401000 ca    1 MON     0.4150 ****
 19 O2     -0.840000   -0.143000    6.073000 oh    1 MON    -0.5892 ****
 20 C13     0.873000    0.228000    4.473000 ca    1 MON    -0.3587 ****
 21 H      -0.608000   -2.409000    0.901000 hc    1 MON     0.0702 ****
 22 H1     -1.702000   -2.742000   -0.489000 hc    1 MON     0.0702 ****
 23 H2     -2.006000   -1.313000    0.573000 hc    1 MON     0.0702 ****
 24 H3      0.429000   -1.694000   -1.312000 h1    1 MON     0.0638 ****
 25 H4     -1.008000   -0.650000   -1.605000 h1    1 MON     0.0638 ****
 26 H5     -0.031000    2.134000   -0.380000 hc    1 MON     0.1709 ****
 27 H6      0.974000    3.573000   -0.339000 hc    1 MON     0.1709 ****
 28 H7     -0.418000    3.403000    0.787000 hc    1 MON     0.1709 ****
 29 H8      1.635000    4.373000    1.994000 hn    1 MON     0.3709 ****
 30 H9      3.923000    1.606000    4.219000 hn    1 MON     0.4035 ****
 31 H10     3.539000    0.143000    2.280000 h1    1 MON     0.0413 ****
 32 H11     3.334000   -1.907000    3.455000 ha    1 MON     0.1674 ****
 33 H12     2.205000   -3.362000    5.091000 ha    1 MON     0.1646 ****
 34 H13     0.232000   -2.551000    6.337000 ha    1 MON     0.1922 ****
 35 H14    -1.312000   -0.684000    6.722000 ho    1 MON     0.4324 ****
 36 H15     0.495000    1.230000    4.306000 ha    1 MON     0.1924 ****
@<TRIPOS>BOND
    1    20    36 1
    2    19    35 1
    3    18    19 1
    4    18    20 1
    5    17    18 1
    6    17    34 1
    7    16    17 1
    8    16    33 1
    9    15    16 1
   10    15    32 1
   11    14    15 1
   12    14    20 1
   13    13    14 1
   14    13    31 1
   15    12    13 1
   16    12    30 1
   17    10    11 1
   18    10    12 1
   19     9    10 1
   20     9    29 1
   21     8    26 1
   22     8    27 1
   23     8    28 1
   24     7     8 1
   25     7     9 1
   26     6     7 1
   27     6    13 1
   28     4     5 1
   29     4     6 1
   30     3     4 1
   31     2     3 1
   32     2    24 1
   33     2    25 1
   34     1     2 1
   35     1    21 1
   36     1    22 1
   37     1    23 1
@<TRIPOS>SUBSTRUCTURE
      1  MON              1 ****               0 ****  **** 
