@<TRIPOS>MOLECULE
MON
   36    37     1     0     0
SMALL
bcc


@<TRIPOS>ATOM
      1 C           -1.2170    -1.9370     0.1030 c3         1 MON      -0.126100
      2 C1          -0.3520    -1.0760    -0.8170 c3         1 MON       0.140400
      3 O            0.2340    -0.0300    -0.1270 os         1 MON      -0.447900
      4 C2           1.1890    -0.1450     0.8280 c          1 MON       0.670300
      5 O1           1.6530    -1.2530     1.0630 o          1 MON      -0.559000
      6 C3           1.7020     1.0410     1.6150 ce         1 MON      -0.282400
      7 C4           1.3590     2.3560     1.3830 c2         1 MON       0.140400
      8 C5           0.4200     2.8580     0.3030 c3         1 MON      -0.078900
      9 N            1.9130     3.3960     2.1850 n          1 MON      -0.440100
     10 C6           2.8490     3.1340     3.2100 c          1 MON       0.554400
     11 S            3.4070     4.2160     3.9790 s          1 MON      -0.528400
     12 N1           3.2340     1.8010     3.4740 n          1 MON      -0.491900
     13 C7           2.6810     0.6730     2.7510 c3         1 MON       0.201200
     14 C8           1.9950    -0.2300     3.7580 ca         1 MON      -0.093300
     15 C9           2.4710    -1.5320     3.9910 ca         1 MON      -0.144000
     16 C10          1.8340    -2.3610     4.9180 ca         1 MON      -0.094000
     17 C11          0.7180    -1.9000     5.6220 ca         1 MON      -0.205000
     18 C12          0.2350    -0.6020     5.4010 ca         1 MON       0.122100
     19 O2          -0.8400    -0.1430     6.0730 oh         1 MON      -0.496100
     20 C13          0.8730     0.2280     4.4730 ca         1 MON      -0.144000
     21 H           -0.6080    -2.4090     0.9010 hc         1 MON       0.050033
     22 H1          -1.7020    -2.7420    -0.4890 hc         1 MON       0.050033
     23 H2          -2.0060    -1.3130     0.5730 hc         1 MON       0.050033
     24 H3           0.4290    -1.6940    -1.3120 h1         1 MON       0.061700
     25 H4          -1.0080    -0.6500    -1.6050 h1         1 MON       0.061700
     26 H5          -0.0310     2.1340    -0.3800 hc         1 MON       0.072700
     27 H6           0.9740     3.5730    -0.3390 hc         1 MON       0.072700
     28 H7          -0.4180     3.4030     0.7870 hc         1 MON       0.072700
     29 H8           1.6350     4.3730     1.9940 hn         1 MON       0.360500
     30 H9           3.9230     1.6060     4.2190 hn         1 MON       0.352500
     31 H10          3.5390     0.1430     2.2800 h1         1 MON       0.094700
     32 H11          3.3340    -1.9070     3.4550 ha         1 MON       0.157000
     33 H12          2.2050    -3.3620     5.0910 ha         1 MON       0.137000
     34 H13          0.2320    -2.5510     6.3370 ha         1 MON       0.135000
     35 H14         -1.3120    -0.6840     6.7220 ho         1 MON       0.420000
     36 H15          0.4950     1.2300     4.3060 ha         1 MON       0.152000
@<TRIPOS>BOND
     1     1     2 1   
     2     1    21 1   
     3     1    22 1   
     4     1    23 1   
     5     2     3 1   
     6     2    24 1   
     7     2    25 1   
     8     3     4 1   
     9     4     5 2   
    10     4     6 1   
    11     6     7 2   
    12     6    13 1   
    13     7     8 1   
    14     7     9 1   
    15     8    26 1   
    16     8    27 1   
    17     8    28 1   
    18     9    10 1   
    19     9    29 1   
    20    10    11 2   
    21    10    12 1   
    22    12    13 1   
    23    12    30 1   
    24    13    14 1   
    25    13    31 1   
    26    14    15 ar  
    27    14    20 ar  
    28    15    16 ar  
    29    15    32 1   
    30    16    17 ar  
    31    16    33 1   
    32    17    18 ar  
    33    17    34 1   
    34    18    19 1   
    35    18    20 ar  
    36    19    35 1   
    37    20    36 1   
@<TRIPOS>SUBSTRUCTURE
     1 MON         1 TEMP              0 ****  ****    0 ROOT
